Circuit: * C:\data\src\BlinkySWR\design\ltspice\blinky-diode-curve-parametric.asc

.OP point found by inspection.
.step vsrc=0
.step vsrc=0.1
.step vsrc=0.2
.step vsrc=0.3
.step vsrc=0.4
.step vsrc=0.5
.step vsrc=0.6
.step vsrc=0.7
.step vsrc=0.8
.step vsrc=0.9
.step vsrc=1
.step vsrc=1.1
.step vsrc=1.2
.step vsrc=1.3
.step vsrc=1.4
.step vsrc=1.5
.step vsrc=1.6
.step vsrc=1.7
.step vsrc=1.8
.step vsrc=1.9
.step vsrc=2
.step vsrc=2.1
.step vsrc=2.2
.step vsrc=2.3
.step vsrc=2.4
.step vsrc=2.5
.step vsrc=2.6
.step vsrc=2.7
.step vsrc=2.8
.step vsrc=2.9
.step vsrc=3
.step vsrc=3.1
.step vsrc=3.2
.step vsrc=3.3
.step vsrc=3.4
.step vsrc=3.5
.step vsrc=3.6
.step vsrc=3.7
.step vsrc=3.8
.step vsrc=3.9
.step vsrc=4
.step vsrc=4.1
.step vsrc=4.2
.step vsrc=4.3
.step vsrc=4.4
.step vsrc=4.5
.step vsrc=4.6
.step vsrc=4.7
.step vsrc=4.8
.step vsrc=4.9
.step vsrc=5
.step vsrc=5.1
.step vsrc=5.2
.step vsrc=5.3
.step vsrc=5.4
.step vsrc=5.5
.step vsrc=5.6
.step vsrc=5.7
.step vsrc=5.8
.step vsrc=5.9
.step vsrc=6
.step vsrc=6.1
.step vsrc=6.2
.step vsrc=6.3
.step vsrc=6.4
.step vsrc=6.5
.step vsrc=6.6
.step vsrc=6.7
.step vsrc=6.8
.step vsrc=6.9
.step vsrc=7
.step vsrc=7.1
.step vsrc=7.2
.step vsrc=7.3
.step vsrc=7.4
.step vsrc=7.5
.step vsrc=7.6
.step vsrc=7.7
.step vsrc=7.8
.step vsrc=7.9
.step vsrc=8
.step vsrc=8.1
.step vsrc=8.2
.step vsrc=8.3
.step vsrc=8.4
.step vsrc=8.5
.step vsrc=8.6
.step vsrc=8.7
.step vsrc=8.8
.step vsrc=8.9
.step vsrc=9
.step vsrc=9.1
.step vsrc=9.2
.step vsrc=9.3
.step vsrc=9.4
.step vsrc=9.5
.step vsrc=9.6
.step vsrc=9.7
.step vsrc=9.8
.step vsrc=9.9
.step vsrc=10
.step vsrc=10.1
.step vsrc=10.2
.step vsrc=10.3
.step vsrc=10.4
.step vsrc=10.5
.step vsrc=10.6
.step vsrc=10.7
.step vsrc=10.8
.step vsrc=10.9
.step vsrc=11
.step vsrc=11.1
.step vsrc=11.2
.step vsrc=11.3
.step vsrc=11.4
.step vsrc=11.5
.step vsrc=11.6
.step vsrc=11.7
.step vsrc=11.8
.step vsrc=11.9
.step vsrc=12
.step vsrc=12.1
.step vsrc=12.2
.step vsrc=12.3
.step vsrc=12.4
.step vsrc=12.5
.step vsrc=12.6
.step vsrc=12.7
.step vsrc=12.8
.step vsrc=12.9
.step vsrc=13
.step vsrc=13.1
.step vsrc=13.2
.step vsrc=13.3
.step vsrc=13.4
.step vsrc=13.5
.step vsrc=13.6
.step vsrc=13.7
.step vsrc=13.8
.step vsrc=13.9
.step vsrc=14
.step vsrc=14.1
.step vsrc=14.2
.step vsrc=14.3
.step vsrc=14.4
.step vsrc=14.5
.step vsrc=14.6
.step vsrc=14.7
.step vsrc=14.8
.step vsrc=14.9
.step vsrc=15
.step vsrc=15.1
.step vsrc=15.2
.step vsrc=15.3
.step vsrc=15.4
.step vsrc=15.5
.step vsrc=15.6
.step vsrc=15.7
.step vsrc=15.8
.step vsrc=15.9
.step vsrc=16
.step vsrc=16.1
.step vsrc=16.2
.step vsrc=16.3
.step vsrc=16.4
.step vsrc=16.5
.step vsrc=16.6
.step vsrc=16.7
.step vsrc=16.8
.step vsrc=16.9
.step vsrc=17
.step vsrc=17.1
.step vsrc=17.2
.step vsrc=17.3
.step vsrc=17.4
.step vsrc=17.5
.step vsrc=17.6
.step vsrc=17.7
.step vsrc=17.8
.step vsrc=17.9
.step vsrc=18
.step vsrc=18.1
.step vsrc=18.2
.step vsrc=18.3
.step vsrc=18.4
.step vsrc=18.5
.step vsrc=18.6
.step vsrc=18.7
.step vsrc=18.8
.step vsrc=18.9
.step vsrc=19
.step vsrc=19.1
.step vsrc=19.2
.step vsrc=19.3
.step vsrc=19.4
.step vsrc=19.5
.step vsrc=19.6
.step vsrc=19.7
.step vsrc=19.8
.step vsrc=19.9
.step vsrc=20
.step vsrc=20.1
.step vsrc=20.2
.step vsrc=20.3
.step vsrc=20.4
.step vsrc=20.5
.step vsrc=20.6
.step vsrc=20.7
.step vsrc=20.8
.step vsrc=20.9
.step vsrc=21
.step vsrc=21.1
.step vsrc=21.2
.step vsrc=21.3
.step vsrc=21.4
.step vsrc=21.5
.step vsrc=21.6
.step vsrc=21.7
.step vsrc=21.8
.step vsrc=21.9
.step vsrc=22
.step vsrc=22.1
.step vsrc=22.2
.step vsrc=22.3
.step vsrc=22.4
.step vsrc=22.5
.step vsrc=22.6
.step vsrc=22.7
.step vsrc=22.8
.step vsrc=22.9
.step vsrc=23
.step vsrc=23.1
.step vsrc=23.2
.step vsrc=23.3
.step vsrc=23.4
.step vsrc=23.5
.step vsrc=23.6
.step vsrc=23.7
.step vsrc=23.8
.step vsrc=23.9
.step vsrc=24
.step vsrc=24.1
.step vsrc=24.2
.step vsrc=24.3
.step vsrc=24.4
.step vsrc=24.5
.step vsrc=24.6
.step vsrc=24.7
.step vsrc=24.8
.step vsrc=24.9
.step vsrc=25
.step vsrc=25.1
.step vsrc=25.2
.step vsrc=25.3
.step vsrc=25.4
.step vsrc=25.5
.step vsrc=25.6
.step vsrc=25.7
.step vsrc=25.8
.step vsrc=25.9
.step vsrc=26
.step vsrc=26.1
.step vsrc=26.2
.step vsrc=26.3
.step vsrc=26.4
.step vsrc=26.5
.step vsrc=26.6
.step vsrc=26.7
.step vsrc=26.8
.step vsrc=26.9
.step vsrc=27
.step vsrc=27.1
.step vsrc=27.2
.step vsrc=27.3
.step vsrc=27.4
.step vsrc=27.5
.step vsrc=27.6
.step vsrc=27.7
.step vsrc=27.8
.step vsrc=27.9
.step vsrc=28
.step vsrc=28.1
.step vsrc=28.2
.step vsrc=28.3
.step vsrc=28.4
.step vsrc=28.5
.step vsrc=28.6
.step vsrc=28.7
.step vsrc=28.8
.step vsrc=28.9
.step vsrc=29
.step vsrc=29.1
.step vsrc=29.2
.step vsrc=29.3
.step vsrc=29.4
.step vsrc=29.5
.step vsrc=29.6
.step vsrc=29.7
.step vsrc=29.8
.step vsrc=29.9
.step vsrc=30
.step vsrc=30.1
.step vsrc=30.2
.step vsrc=30.3
.step vsrc=30.4
.step vsrc=30.5
.step vsrc=30.6
.step vsrc=30.7
.step vsrc=30.8
.step vsrc=30.9
.step vsrc=31
.step vsrc=31.1
.step vsrc=31.2
.step vsrc=31.3
.step vsrc=31.4
.step vsrc=31.5
.step vsrc=31.6
.step vsrc=31.7
.step vsrc=31.8
.step vsrc=31.9
.step vsrc=32
.step vsrc=32.1
.step vsrc=32.2
.step vsrc=32.3
.step vsrc=32.4
.step vsrc=32.5
.step vsrc=32.6
.step vsrc=32.7
.step vsrc=32.8
.step vsrc=32.9
.step vsrc=33
.step vsrc=33.1
.step vsrc=33.2
.step vsrc=33.3
.step vsrc=33.4
.step vsrc=33.5
.step vsrc=33.6
.step vsrc=33.7
.step vsrc=33.8
.step vsrc=33.9
.step vsrc=34
.step vsrc=34.1
.step vsrc=34.2
.step vsrc=34.3
.step vsrc=34.4
.step vsrc=34.5
.step vsrc=34.6
.step vsrc=34.7
.step vsrc=34.8
.step vsrc=34.9
.step vsrc=35
.step vsrc=35.1
.step vsrc=35.2
.step vsrc=35.3
.step vsrc=35.4
.step vsrc=35.5
.step vsrc=35.6
.step vsrc=35.7
.step vsrc=35.8
.step vsrc=35.9
.step vsrc=36
.step vsrc=36.1
.step vsrc=36.2
.step vsrc=36.3
.step vsrc=36.4
.step vsrc=36.5
.step vsrc=36.6
.step vsrc=36.7
.step vsrc=36.8
.step vsrc=36.9
.step vsrc=37
.step vsrc=37.1
.step vsrc=37.2
.step vsrc=37.3
.step vsrc=37.4
.step vsrc=37.5
.step vsrc=37.6
.step vsrc=37.7
.step vsrc=37.8
.step vsrc=37.9
.step vsrc=38
.step vsrc=38.1
.step vsrc=38.2
.step vsrc=38.3
.step vsrc=38.4
.step vsrc=38.5
.step vsrc=38.6
.step vsrc=38.7
.step vsrc=38.8
.step vsrc=38.9
.step vsrc=39
.step vsrc=39.1
.step vsrc=39.2
.step vsrc=39.3
.step vsrc=39.4
.step vsrc=39.5
.step vsrc=39.6
.step vsrc=39.7
.step vsrc=39.8
.step vsrc=39.9
.step vsrc=40
.step vsrc=40.1
.step vsrc=40.2
.step vsrc=40.3
.step vsrc=40.4
.step vsrc=40.5
.step vsrc=40.6
.step vsrc=40.7
.step vsrc=40.8
.step vsrc=40.9
.step vsrc=41
.step vsrc=41.1
.step vsrc=41.2
.step vsrc=41.3
.step vsrc=41.4
.step vsrc=41.5
.step vsrc=41.6
.step vsrc=41.7
.step vsrc=41.8
.step vsrc=41.9
.step vsrc=42
.step vsrc=42.1
.step vsrc=42.2
.step vsrc=42.3
.step vsrc=42.4
.step vsrc=42.5
.step vsrc=42.6
.step vsrc=42.7
.step vsrc=42.8
.step vsrc=42.9
.step vsrc=43
.step vsrc=43.1
.step vsrc=43.2
.step vsrc=43.3
.step vsrc=43.4
.step vsrc=43.5
.step vsrc=43.6
.step vsrc=43.7
.step vsrc=43.8
.step vsrc=43.9
.step vsrc=44
.step vsrc=44.1
.step vsrc=44.2
.step vsrc=44.3
.step vsrc=44.4
.step vsrc=44.5
.step vsrc=44.6
.step vsrc=44.7
.step vsrc=44.8
.step vsrc=44.9
.step vsrc=45
.step vsrc=45.1
.step vsrc=45.2
.step vsrc=45.3
.step vsrc=45.4
.step vsrc=45.5
.step vsrc=45.6
.step vsrc=45.7
.step vsrc=45.8
.step vsrc=45.9
.step vsrc=46
.step vsrc=46.1
.step vsrc=46.2
.step vsrc=46.3
.step vsrc=46.4
.step vsrc=46.5
.step vsrc=46.6
.step vsrc=46.7
.step vsrc=46.8
.step vsrc=46.9
.step vsrc=47
.step vsrc=47.1
.step vsrc=47.2
.step vsrc=47.3
.step vsrc=47.4
.step vsrc=47.5
.step vsrc=47.6
.step vsrc=47.7
.step vsrc=47.8
.step vsrc=47.9
.step vsrc=48
.step vsrc=48.1
.step vsrc=48.2
.step vsrc=48.3
.step vsrc=48.4
.step vsrc=48.5
.step vsrc=48.6
.step vsrc=48.7
.step vsrc=48.8
.step vsrc=48.9
.step vsrc=49
.step vsrc=49.1
.step vsrc=49.2
.step vsrc=49.3
.step vsrc=49.4
.step vsrc=49.5
.step vsrc=49.6
.step vsrc=49.7
.step vsrc=49.8
.step vsrc=49.9
.step vsrc=50
.step vsrc=50.1
.step vsrc=50.2
.step vsrc=50.3
.step vsrc=50.4
.step vsrc=50.5
.step vsrc=50.6
.step vsrc=50.7
.step vsrc=50.8
.step vsrc=50.9
.step vsrc=51
.step vsrc=51.1
.step vsrc=51.2
.step vsrc=51.3
.step vsrc=51.4
.step vsrc=51.5
.step vsrc=51.6
.step vsrc=51.7
.step vsrc=51.8
.step vsrc=51.9
.step vsrc=52
.step vsrc=52.1
.step vsrc=52.2
.step vsrc=52.3
.step vsrc=52.4
.step vsrc=52.5
.step vsrc=52.6
.step vsrc=52.7
.step vsrc=52.8
.step vsrc=52.9
.step vsrc=53
.step vsrc=53.1
.step vsrc=53.2
.step vsrc=53.3
.step vsrc=53.4
.step vsrc=53.5
.step vsrc=53.6
.step vsrc=53.7
.step vsrc=53.8
.step vsrc=53.9
.step vsrc=54
.step vsrc=54.1
.step vsrc=54.2
.step vsrc=54.3
.step vsrc=54.4
.step vsrc=54.5
.step vsrc=54.6
.step vsrc=54.7
.step vsrc=54.8
.step vsrc=54.9
.step vsrc=55
.step vsrc=55.1
.step vsrc=55.2
.step vsrc=55.3
.step vsrc=55.4
.step vsrc=55.5
.step vsrc=55.6
.step vsrc=55.7
.step vsrc=55.8
.step vsrc=55.9
.step vsrc=56
.step vsrc=56.1
.step vsrc=56.2
.step vsrc=56.3
.step vsrc=56.4
.step vsrc=56.5
.step vsrc=56.6
.step vsrc=56.7
.step vsrc=56.8
.step vsrc=56.9
.step vsrc=57
.step vsrc=57.1
.step vsrc=57.2
.step vsrc=57.3
.step vsrc=57.4
.step vsrc=57.5
.step vsrc=57.6
.step vsrc=57.7
.step vsrc=57.8
.step vsrc=57.9
.step vsrc=58
.step vsrc=58.1
.step vsrc=58.2
.step vsrc=58.3
.step vsrc=58.4
.step vsrc=58.5
.step vsrc=58.6
.step vsrc=58.7
.step vsrc=58.8
.step vsrc=58.9
.step vsrc=59
.step vsrc=59.1
.step vsrc=59.2
.step vsrc=59.3
.step vsrc=59.4
.step vsrc=59.5
.step vsrc=59.6
.step vsrc=59.7
.step vsrc=59.8
.step vsrc=59.9
.step vsrc=60
.step vsrc=60.1
.step vsrc=60.2
.step vsrc=60.3
.step vsrc=60.4
.step vsrc=60.5
.step vsrc=60.6
.step vsrc=60.7
.step vsrc=60.8
.step vsrc=60.9
.step vsrc=61
.step vsrc=61.1
.step vsrc=61.2
.step vsrc=61.3
.step vsrc=61.4
.step vsrc=61.5
.step vsrc=61.6
.step vsrc=61.7
.step vsrc=61.8
.step vsrc=61.9
.step vsrc=62
.step vsrc=62.1
.step vsrc=62.2
.step vsrc=62.3
.step vsrc=62.4
.step vsrc=62.5
.step vsrc=62.6
.step vsrc=62.7
.step vsrc=62.8
.step vsrc=62.9
.step vsrc=63
.step vsrc=63.1
.step vsrc=63.2
.step vsrc=63.3
.step vsrc=63.4
.step vsrc=63.5
.step vsrc=63.6
.step vsrc=63.7
.step vsrc=63.8
.step vsrc=63.9
.step vsrc=64
.step vsrc=64.1
.step vsrc=64.2
.step vsrc=64.3
.step vsrc=64.4
.step vsrc=64.5
.step vsrc=64.6
.step vsrc=64.7
.step vsrc=64.8
.step vsrc=64.9
.step vsrc=65
.step vsrc=65.1
.step vsrc=65.2
.step vsrc=65.3
.step vsrc=65.4
.step vsrc=65.5
.step vsrc=65.6
.step vsrc=65.7
.step vsrc=65.8
.step vsrc=65.9
.step vsrc=66
.step vsrc=66.1
.step vsrc=66.2
.step vsrc=66.3
.step vsrc=66.4
.step vsrc=66.5
.step vsrc=66.6
.step vsrc=66.7
.step vsrc=66.8
.step vsrc=66.9
.step vsrc=67
.step vsrc=67.1
.step vsrc=67.2
.step vsrc=67.3
.step vsrc=67.4
.step vsrc=67.5
.step vsrc=67.6
.step vsrc=67.7
.step vsrc=67.8
.step vsrc=67.9
.step vsrc=68
.step vsrc=68.1
.step vsrc=68.2
.step vsrc=68.3
.step vsrc=68.4
.step vsrc=68.5
.step vsrc=68.6
.step vsrc=68.7
.step vsrc=68.8
.step vsrc=68.9
.step vsrc=69
.step vsrc=69.1
.step vsrc=69.2
.step vsrc=69.3
.step vsrc=69.4
.step vsrc=69.5
.step vsrc=69.6
.step vsrc=69.7
.step vsrc=69.8
.step vsrc=69.9
.step vsrc=70
.step vsrc=70.1
.step vsrc=70.2
.step vsrc=70.3
.step vsrc=70.4
.step vsrc=70.5
.step vsrc=70.6
.step vsrc=70.7
.step vsrc=70.8
.step vsrc=70.9
.step vsrc=71
.step vsrc=71.1
.step vsrc=71.2
.step vsrc=71.3
.step vsrc=71.4
.step vsrc=71.5
.step vsrc=71.6
.step vsrc=71.7
.step vsrc=71.8
.step vsrc=71.9
.step vsrc=72
.step vsrc=72.1
.step vsrc=72.2
.step vsrc=72.3
.step vsrc=72.4
.step vsrc=72.5
.step vsrc=72.6
.step vsrc=72.7
.step vsrc=72.8
.step vsrc=72.9
.step vsrc=73
.step vsrc=73.1
.step vsrc=73.2
.step vsrc=73.3
.step vsrc=73.4
.step vsrc=73.5
.step vsrc=73.6
.step vsrc=73.7
.step vsrc=73.8
.step vsrc=73.9
.step vsrc=74
.step vsrc=74.1
.step vsrc=74.2
.step vsrc=74.3
.step vsrc=74.4
.step vsrc=74.5
.step vsrc=74.6
.step vsrc=74.7
.step vsrc=74.8
.step vsrc=74.9
.step vsrc=75
.step vsrc=75.1
.step vsrc=75.2
.step vsrc=75.3
.step vsrc=75.4
.step vsrc=75.5
.step vsrc=75.6
.step vsrc=75.7
.step vsrc=75.8
.step vsrc=75.9
.step vsrc=76
.step vsrc=76.1
.step vsrc=76.2
.step vsrc=76.3
.step vsrc=76.4
.step vsrc=76.5
.step vsrc=76.6
.step vsrc=76.7
.step vsrc=76.8
.step vsrc=76.9
.step vsrc=77
.step vsrc=77.1
.step vsrc=77.2
.step vsrc=77.3
.step vsrc=77.4
.step vsrc=77.5
.step vsrc=77.6
.step vsrc=77.7
.step vsrc=77.8
.step vsrc=77.9
.step vsrc=78
.step vsrc=78.1
.step vsrc=78.2
.step vsrc=78.3
.step vsrc=78.4
.step vsrc=78.5
.step vsrc=78.6
.step vsrc=78.7
.step vsrc=78.8
.step vsrc=78.9
.step vsrc=79
.step vsrc=79.1
.step vsrc=79.2
.step vsrc=79.3
.step vsrc=79.4
.step vsrc=79.5
.step vsrc=79.6
.step vsrc=79.7
.step vsrc=79.8
.step vsrc=79.9
.step vsrc=80
.step vsrc=80.1
.step vsrc=80.2
.step vsrc=80.3
.step vsrc=80.4
.step vsrc=80.5
.step vsrc=80.6
.step vsrc=80.7
.step vsrc=80.8
.step vsrc=80.9
.step vsrc=81
.step vsrc=81.1
.step vsrc=81.2
.step vsrc=81.3
.step vsrc=81.4
.step vsrc=81.5
.step vsrc=81.6
.step vsrc=81.7
.step vsrc=81.8
.step vsrc=81.9
.step vsrc=82
.step vsrc=82.1
.step vsrc=82.2
.step vsrc=82.3
.step vsrc=82.4
.step vsrc=82.5
.step vsrc=82.6
.step vsrc=82.7
.step vsrc=82.8
.step vsrc=82.9
.step vsrc=83
.step vsrc=83.1
.step vsrc=83.2
.step vsrc=83.3
.step vsrc=83.4
.step vsrc=83.5
.step vsrc=83.6
.step vsrc=83.7
.step vsrc=83.8
.step vsrc=83.9
.step vsrc=84
.step vsrc=84.1
.step vsrc=84.2
.step vsrc=84.3
.step vsrc=84.4
.step vsrc=84.5
.step vsrc=84.6
.step vsrc=84.7
.step vsrc=84.8
.step vsrc=84.9
.step vsrc=85
.step vsrc=85.1
.step vsrc=85.2
.step vsrc=85.3
.step vsrc=85.4
.step vsrc=85.5
.step vsrc=85.6
.step vsrc=85.7
.step vsrc=85.8
.step vsrc=85.9
.step vsrc=86
.step vsrc=86.1
.step vsrc=86.2
.step vsrc=86.3
.step vsrc=86.4
.step vsrc=86.5
.step vsrc=86.6
.step vsrc=86.7
.step vsrc=86.8
.step vsrc=86.9
.step vsrc=87
.step vsrc=87.1
.step vsrc=87.2
.step vsrc=87.3
.step vsrc=87.4
.step vsrc=87.5
.step vsrc=87.6
.step vsrc=87.7
.step vsrc=87.8
.step vsrc=87.9
.step vsrc=88
.step vsrc=88.1
.step vsrc=88.2
.step vsrc=88.3
.step vsrc=88.4
.step vsrc=88.5
.step vsrc=88.6
.step vsrc=88.7
.step vsrc=88.8
.step vsrc=88.9
.step vsrc=89
.step vsrc=89.1
.step vsrc=89.2
.step vsrc=89.3
.step vsrc=89.4
.step vsrc=89.5
.step vsrc=89.6
.step vsrc=89.7
.step vsrc=89.8
.step vsrc=89.9
.step vsrc=90
.step vsrc=90.1
.step vsrc=90.2
.step vsrc=90.3
.step vsrc=90.4
.step vsrc=90.5
.step vsrc=90.6
.step vsrc=90.7
.step vsrc=90.8
.step vsrc=90.9
.step vsrc=91
.step vsrc=91.1
.step vsrc=91.2
.step vsrc=91.3
.step vsrc=91.4
.step vsrc=91.5
.step vsrc=91.6
.step vsrc=91.7
.step vsrc=91.8
.step vsrc=91.9
.step vsrc=92
.step vsrc=92.1
.step vsrc=92.2
.step vsrc=92.3
.step vsrc=92.4
.step vsrc=92.5
.step vsrc=92.6
.step vsrc=92.7
.step vsrc=92.8
.step vsrc=92.9
.step vsrc=93
.step vsrc=93.1
.step vsrc=93.2
.step vsrc=93.3
.step vsrc=93.4
.step vsrc=93.5
.step vsrc=93.6
.step vsrc=93.7
.step vsrc=93.8
.step vsrc=93.9
.step vsrc=94
.step vsrc=94.1
.step vsrc=94.2
.step vsrc=94.3
.step vsrc=94.4
.step vsrc=94.5
.step vsrc=94.6
.step vsrc=94.7
.step vsrc=94.8
.step vsrc=94.9
.step vsrc=95
.step vsrc=95.1
.step vsrc=95.2
.step vsrc=95.3
.step vsrc=95.4
.step vsrc=95.5
.step vsrc=95.6
.step vsrc=95.7
.step vsrc=95.8
.step vsrc=95.9
.step vsrc=96
.step vsrc=96.1
.step vsrc=96.2
.step vsrc=96.3
.step vsrc=96.4
.step vsrc=96.5
.step vsrc=96.6
.step vsrc=96.7
.step vsrc=96.8
.step vsrc=96.9
.step vsrc=97
.step vsrc=97.1
.step vsrc=97.2
.step vsrc=97.3
.step vsrc=97.4
.step vsrc=97.5
.step vsrc=97.6
.step vsrc=97.7
.step vsrc=97.8
.step vsrc=97.9
.step vsrc=98
.step vsrc=98.1
.step vsrc=98.2
.step vsrc=98.3
.step vsrc=98.4
.step vsrc=98.5
.step vsrc=98.6
.step vsrc=98.7
.step vsrc=98.8
.step vsrc=98.9
.step vsrc=99
.step vsrc=99.1
.step vsrc=99.2
.step vsrc=99.3
.step vsrc=99.4
.step vsrc=99.5
.step vsrc=99.6
.step vsrc=99.7
.step vsrc=99.8
.step vsrc=99.9
.step vsrc=100

Date: Mon Oct 28 13:27:10 2019
Total elapsed time: 4920.042 seconds.

tnom = 27
temp = 27
method = modified trap
totiter = 1544519
traniter = 1544519
tranpoints = 500087
accept = 321594
rejected = 178493
matrix size = 9
fillins = 3
solver = Normal
Matrix Compiler1: 542 bytes object code size  2.9/2.7/[2.6]
Matrix Compiler2: 695 bytes object code size  2.6/2.7/[2.5]

