Circuit: * C:\data\src\BlinkySWR\design\ltspice\blinky-diode-curve-parametric.asc

.OP point found by inspection.
.step vsrc=0
.step vsrc=0.5
.step vsrc=1
.step vsrc=1.5
.step vsrc=2
.step vsrc=2.5
.step vsrc=3
.step vsrc=3.5
.step vsrc=4
.step vsrc=4.5
.step vsrc=5
.step vsrc=5.5
.step vsrc=6
.step vsrc=6.5
.step vsrc=7
.step vsrc=7.5
.step vsrc=8
.step vsrc=8.5
.step vsrc=9
.step vsrc=9.5
.step vsrc=10
.step vsrc=10.5
.step vsrc=11
.step vsrc=11.5
.step vsrc=12
.step vsrc=12.5
.step vsrc=13
.step vsrc=13.5
.step vsrc=14
.step vsrc=14.5
.step vsrc=15
.step vsrc=15.5
.step vsrc=16
.step vsrc=16.5
.step vsrc=17
.step vsrc=17.5
.step vsrc=18
.step vsrc=18.5
.step vsrc=19
.step vsrc=19.5
.step vsrc=20
.step vsrc=20.5
.step vsrc=21
.step vsrc=21.5
.step vsrc=22
.step vsrc=22.5
.step vsrc=23
.step vsrc=23.5
.step vsrc=24
.step vsrc=24.5
.step vsrc=25
.step vsrc=25.5
.step vsrc=26
.step vsrc=26.5
.step vsrc=27
.step vsrc=27.5
.step vsrc=28
.step vsrc=28.5
.step vsrc=29
.step vsrc=29.5
.step vsrc=30
.step vsrc=30.5
.step vsrc=31
.step vsrc=31.5
.step vsrc=32
.step vsrc=32.5
.step vsrc=33
.step vsrc=33.5
.step vsrc=34
.step vsrc=34.5
.step vsrc=35
.step vsrc=35.5
.step vsrc=36
.step vsrc=36.5
.step vsrc=37
.step vsrc=37.5
.step vsrc=38
.step vsrc=38.5
.step vsrc=39
.step vsrc=39.5
.step vsrc=40
.step vsrc=40.5
.step vsrc=41
.step vsrc=41.5
.step vsrc=42
.step vsrc=42.5
.step vsrc=43
.step vsrc=43.5
.step vsrc=44
.step vsrc=44.5
.step vsrc=45
.step vsrc=45.5
.step vsrc=46
.step vsrc=46.5
.step vsrc=47
.step vsrc=47.5
.step vsrc=48
.step vsrc=48.5
.step vsrc=49
.step vsrc=49.5
.step vsrc=50
.step vsrc=50.5
.step vsrc=51
.step vsrc=51.5
.step vsrc=52
.step vsrc=52.5
.step vsrc=53
.step vsrc=53.5
.step vsrc=54
.step vsrc=54.5
.step vsrc=55
.step vsrc=55.5
.step vsrc=56
.step vsrc=56.5
.step vsrc=57
.step vsrc=57.5
.step vsrc=58
.step vsrc=58.5
.step vsrc=59
.step vsrc=59.5
.step vsrc=60
.step vsrc=60.5
.step vsrc=61
.step vsrc=61.5
.step vsrc=62
.step vsrc=62.5
.step vsrc=63
.step vsrc=63.5
.step vsrc=64
.step vsrc=64.5
.step vsrc=65
.step vsrc=65.5
.step vsrc=66
.step vsrc=66.5
.step vsrc=67
.step vsrc=67.5
.step vsrc=68
.step vsrc=68.5
.step vsrc=69
.step vsrc=69.5
.step vsrc=70
.step vsrc=70.5
.step vsrc=71
.step vsrc=71.5
.step vsrc=72
.step vsrc=72.5
.step vsrc=73
.step vsrc=73.5
.step vsrc=74
.step vsrc=74.5
.step vsrc=75
.step vsrc=75.5
.step vsrc=76
.step vsrc=76.5
.step vsrc=77
.step vsrc=77.5
.step vsrc=78
.step vsrc=78.5
.step vsrc=79
.step vsrc=79.5
.step vsrc=80
.step vsrc=80.5
.step vsrc=81
.step vsrc=81.5
.step vsrc=82
.step vsrc=82.5
.step vsrc=83
.step vsrc=83.5
.step vsrc=84
.step vsrc=84.5
.step vsrc=85
.step vsrc=85.5
.step vsrc=86
.step vsrc=86.5
.step vsrc=87
.step vsrc=87.5
.step vsrc=88
.step vsrc=88.5
.step vsrc=89
.step vsrc=89.5
.step vsrc=90
.step vsrc=90.5
.step vsrc=91
.step vsrc=91.5
.step vsrc=92
.step vsrc=92.5
.step vsrc=93
.step vsrc=93.5
.step vsrc=94
.step vsrc=94.5
.step vsrc=95
.step vsrc=95.5
.step vsrc=96
.step vsrc=96.5
.step vsrc=97
.step vsrc=97.5
.step vsrc=98
.step vsrc=98.5
.step vsrc=99
.step vsrc=99.5
.step vsrc=100

Date: Sun Sep 29 13:48:43 2019
Total elapsed time: 1204.659 seconds.

tnom = 27
temp = 27
method = modified trap
totiter = 1488280
traniter = 1488280
tranpoints = 479295
accept = 321721
rejected = 157574
matrix size = 9
fillins = 3
solver = Normal
Matrix Compiler1: 542 bytes object code size  3.2/3.1/[2.9]
Matrix Compiler2: 695 bytes object code size  2.9/3.1/[2.8]

